bes/WECC240_wmva.m
function mpc = WECC240_wmva
mpc.version = "2";
mpc.baseMVA = 100.00;
mpc.bus = [
      1.000000     1.000000     0.000000     0.000000     0.000000     0.000000     1.000000     1.000000     0.000000   500.000000     1.000000     1.100000     0.900000;
      2.000000     1.000000   223.710000   583.546000     0.000000     0.000000     1.000000     1.000000     0.000000   345.000000     1.000000     1.100000     0.900000;
      3.000000     1.000000  2212.664000  -387.354000     0.000000     0.000000     1.000000     1.000000     0.000000   230.000000     1.000000     1.100000     0.900000;
      4.000000     1.000000  1007.718000    -5.204000     0.000000     0.000000     1.000000     1.000000     0.000000   345.000000     1.000000     1.100000     0.900000;
      5.000000     2.000000     0.000000     0.000000     0.000000     0.000000     1.000000     1.000000     0.000000    20.000000     1.000000     1.100000     0.900000;
      6.000000     2.000000     0.000000     0.000000     0.000000     0.000000     1.000000     1.000000     0.000000    20.000000     1.000000     1.100000     0.900000;
      7.000000     1.000000  4482.541000   134.344000     0.000000     0.000000     1.000000     1.000000     0.000000   500.000000     1.000000     1.100000     0.900000;
      8.000000     1.000000   179.873000   -23.907000     0.000000     0.000000     1.000000     1.000000     0.000000   345.000000     1.000000     1.100000     0.900000;
      9.000000     2.000000     0.000000     0.000000     0.000000     0.000000     1.000000     1.000000     0.000000    20.000000     1.000000     1.100000     0.900000;
     10.000000     1.000000   153.984000     1.711000     0.000000     0.000000     1.000000     1.000000     0.000000   500.000000     1.000000     1.100000     0.900000;
     11.000000     1.000000   810.750000  -246.169000     0.000000     0.000000     1.000000     1.000000     0.000000   500.000000     1.000000     1.100000     0.900000;
     12.000000     2.000000     0.000000     0.000000     0.000000     0.000000     1.000000     1.000000     0.000000    20.000000     1.000000     1.100000     0.900000;
     13.000000     1.000000  2588.305000  -323.093000     0.000000     0.000000     1.000000     1.000000     0.000000   500.000000     1.000000     1.100000     0.900000;
     14.000000     1.000000    17.088000    -2.183000     0.000000     0.000000     1.000000     1.000000     0.000000   500.000000     1.000000     1.100000     0.900000;
     15.000000     1.000000  6204.116000  -805.276000     0.000000     0.000000     1.000000     1.000000     0.000000   345.000000     1.000000     1.100000     0.900000;
     16.000000     2.000000     0.000000     0.000000     0.000000     0.000000     1.000000     1.000000     0.000000    20.000000     1.000000     1.100000     0.900000;
     17.000000     2.000000     0.000000     0.000000     0.000000     0.000000     1.000000     1.000000     0.000000    20.000000     1.000000     1.100000     0.900000;
     18.000000     1.000000  6314.529000 -1423.225000     0.000000     0.000000     1.000000     1.000000     0.000000   500.000000     1.000000     1.100000     0.900000;
     19.000000     1.000000  5074.202000   536.538000     0.000000     0.000000     1.000000     1.000000     0.000000   500.000000     1.000000     1.100000     0.900000;
     20.000000     1.000000     0.000000     0.000000     0.000000     0.000000     1.000000     1.000000     0.000000   230.000000     1.000000     1.100000     0.900000;
     21.000000     2.000000     0.000000     0.000000     0.000000     0.000000     1.000000     1.000000     0.000000    20.000000     1.000000     1.100000     0.900000;
     22.000000     1.000000  2207.188000  -287.916000     0.000000     0.000000     1.000000     1.000000     0.000000   230.000000     1.000000     1.100000     0.900000;
     23.000000     2.000000     0.000000     0.000000     0.000000     0.000000     1.000000     1.000000     0.000000    20.000000     1.000000     1.100000     0.900000;
     24.000000     1.000000   244.479000   -46.066000     0.000000     0.000000     1.000000     1.000000     0.000000   230.000000     1.000000     1.100000     0.900000;
     25.000000     2.000000     0.000000     0.000000     0.000000     0.000000     1.000000     1.000000     0.000000    20.000000     1.000000     1.100000     0.900000;
     26.000000     1.000000     0.000000     0.000000     0.000000     0.000000     1.000000     1.000000     0.000000   500.000000     1.000000     1.100000     0.900000;
     27.000000     1.000000  1413.957000  -249.625000     0.000000     0.000000     1.000000     1.000000     0.000000   230.000000     1.000000     1.100000     0.900000;
     28.000000     1.000000  1530.047000  -247.960000     0.000000     0.000000     1.000000     1.000000     0.000000   230.000000     1.000000     1.100000     0.900000;
     29.000000     2.000000     0.000000     0.000000     0.000000     0.000000     1.000000     1.000000     0.000000    20.000000     1.000000     1.100000     0.900000;
     30.000000     1.000000     0.000000     0.000000     0.000000     0.000000     1.000000     1.000000     0.000000   500.000000     1.000000     1.100000     0.900000;
     31.000000     1.000000     0.000000     0.000000     0.000000     0.000000     1.000000     1.000000     0.000000   230.000000     1.000000     1.100000     0.900000;
     32.000000     2.000000     0.000000     0.000000     0.000000     0.000000     1.000000     1.000000     0.000000    20.000000     1.000000     1.100000     0.900000;
     33.000000     1.000000   741.606000   -65.877000     0.000000     0.000000     1.000000     1.000000     0.000000   500.000000     1.000000     1.100000     0.900000;
     34.000000     1.000000   756.558000   -85.945000     0.000000     0.000000     1.000000     1.000000     0.000000   500.000000     1.000000     1.100000     0.900000;
     35.000000     1.000000   944.185000   -69.616000     0.000000     0.000000     1.000000     1.000000     0.000000   500.000000     1.000000     1.100000     0.900000;
     36.000000     1.000000   924.912000   -33.229000     0.000000     0.000000     1.000000     1.000000     0.000000   500.000000     1.000000     1.100000     0.900000;
     37.000000     1.000000     0.000000     0.000000     0.000000     0.000000     1.000000     1.000000     0.000000   500.000000     1.000000     1.100000     0.900000;
     38.000000     1.000000   734.331000   -20.175000     0.000000     0.000000     1.000000     1.000000     0.000000   230.000000     1.000000     1.100000     0.900000;
     39.000000     1.000000   659.215000    36.185000     0.000000     0.000000     1.000000     1.000000     0.000000   230.000000     1.000000     1.100000     0.900000;
     40.000000     1.000000  1610.419000    35.064000     0.000000     0.000000     1.000000     1.000000     0.000000   230.000000     1.000000     1.100000     0.900000;
     41.000000     1.000000  1554.955000    64.200000     0.000000     0.000000     1.000000     1.000000     0.000000   230.000000     1.000000     1.100000     0.900000;
     42.000000     1.000000  1413.334000    74.998000     0.000000     0.000000     1.000000     1.000000     0.000000   230.000000     1.000000     1.100000     0.900000;
     43.000000     1.000000  1411.456000   -51.802000     0.000000     0.000000     1.000000     1.000000     0.000000   230.000000     1.000000     1.100000     0.900000;
     44.000000     1.000000   959.465000   -65.677000     0.000000     0.000000     1.000000     1.000000     0.000000   230.000000     1.000000     1.100000     0.900000;
     45.000000     2.000000     0.000000     0.000000     0.000000     0.000000     1.000000     1.000000     0.000000    20.000000     1.000000     1.100000     0.900000;
     46.000000     2.000000     0.000000     0.000000     0.000000     0.000000     1.000000     1.000000     0.000000    20.000000     1.000000     1.100000     0.900000;
     47.000000     3.000000     0.000000     0.000000     0.000000     0.000000     1.000000     1.000000     0.000000    20.000000     1.000000     1.100000     0.900000;
     48.000000     2.000000     0.000000     0.000000     0.000000     0.000000     1.000000     1.000000     0.000000    20.000000     1.000000     1.100000     0.900000;
     49.000000     1.000000     0.000000     0.000000     0.000000     0.000000     1.000000     1.000000     0.000000   500.000000     1.000000     1.100000     0.900000;
     50.000000     1.000000  2087.843000    79.306000     0.000000     0.000000     1.000000     1.000000     0.000000   230.000000     1.000000     1.100000     0.900000;
     51.000000     1.000000  1646.515000  -178.564000     0.000000     0.000000     1.000000     1.000000     0.000000   230.000000     1.000000     1.100000     0.900000;
     52.000000     2.000000     0.000000     0.000000     0.000000     0.000000     1.000000     1.000000     0.000000    20.000000     1.000000     1.100000     0.900000;
     53.000000     1.000000 -1591.978000     0.000000     0.000000     0.000000     1.000000     1.000000     0.000000   500.000000     1.000000     1.100000     0.900000;
     54.000000     1.000000     0.000000     0.000000     0.000000     0.000000     1.000000     1.000000     0.000000   500.000000     1.000000     1.100000     0.900000;
     55.000000     1.000000    87.531000   -11.190000     0.000000     0.000000     1.000000     1.000000     0.000000   500.000000     1.000000     1.100000     0.900000;
     56.000000     1.000000     0.000000     0.000000     0.000000     0.000000     1.000000     1.000000     0.000000   500.000000     1.000000     1.100000     0.900000;
     57.000000     1.000000  1791.945000     0.000000     0.000000     0.000000     1.000000     1.000000     0.000000   345.000000     1.000000     1.100000     0.900000;
     58.000000     1.000000     0.000000     0.000000     0.000000     0.000000     1.000000     1.000000     0.000000   287.000000     1.000000     1.100000     0.900000;
     59.000000     1.000000     0.000000     0.000000     0.000000     0.000000     1.000000     1.000000     0.000000   287.000000     1.000000     1.100000     0.900000;
     60.000000     1.000000     0.000000     0.000000     0.000000     0.000000     1.000000     1.000000     0.000000   287.000000     1.000000     1.100000     0.900000;
     61.000000     1.000000    88.030000   -11.318000     0.000000     0.000000     1.000000     1.000000     0.000000   230.000000     1.000000     1.100000     0.900000;
     62.000000     1.000000   120.790000   -24.191000     0.000000     0.000000     1.000000     1.000000     0.000000   230.000000     1.000000     1.100000     0.900000;
     63.000000     1.000000    88.994000   -11.567000     0.000000     0.000000     1.000000     1.000000     0.000000   230.000000     1.000000     1.100000     0.900000;
     64.000000     1.000000    88.030000   -11.318000     0.000000     0.000000     1.000000     1.000000     0.000000   230.000000     1.000000     1.100000     0.900000;
     65.000000     1.000000   106.667000   -21.743000     0.000000     0.000000     1.000000     1.000000     0.000000   230.000000     1.000000     1.100000     0.900000;
     66.000000     1.000000   287.725000   -58.812000     0.000000     0.000000     1.000000     1.000000     0.000000   230.000000     1.000000     1.100000     0.900000;
     67.000000     1.000000   123.152000   -24.956000     0.000000     0.000000     1.000000     1.000000     0.000000   230.000000     1.000000     1.100000     0.900000;
     68.000000     1.000000   718.654000  -117.014000     0.000000     0.000000     1.000000     1.000000     0.000000   230.000000     1.000000     1.100000     0.900000;
     69.000000     1.000000   104.990000   -21.629000     0.000000     0.000000     1.000000     1.000000     0.000000   230.000000     1.000000     1.100000     0.900000;
     70.000000     1.000000   108.473000   -22.485000     0.000000     0.000000     1.000000     1.000000     0.000000   230.000000     1.000000     1.100000     0.900000;
     71.000000     1.000000   784.705000     5.422000     0.000000     0.000000     1.000000     1.000000     0.000000   230.000000     1.000000     1.100000     0.900000;
     72.000000     1.000000 -2466.528000     0.000000     0.000000     0.000000     1.000000     1.000000     0.000000   230.000000     1.000000     1.100000     0.900000;
     73.000000     1.000000   181.756000   -15.454000     0.000000     0.000000     1.000000     1.000000     0.000000   230.000000     1.000000     1.100000     0.900000;
     74.000000     1.000000   209.415000    55.132000     0.000000     0.000000     1.000000     1.000000     0.000000   138.000000     1.000000     1.100000     0.900000;
     75.000000     2.000000     0.000000     0.000000     0.000000     0.000000     1.000000     1.000000     0.000000    20.000000     1.000000     1.100000     0.900000;
     76.000000     2.000000     0.000000     0.000000     0.000000     0.000000     1.000000     1.000000     0.000000    20.000000     1.000000     1.100000     0.900000;
     77.000000     2.000000     0.000000     0.000000     0.000000     0.000000     1.000000     1.000000     0.000000    20.000000     1.000000     1.100000     0.900000;
     78.000000     2.000000     0.000000     0.000000     0.000000     0.000000     1.000000     1.000000     0.000000    20.000000     1.000000     1.100000     0.900000;
     79.000000     2.000000     0.000000     0.000000     0.000000     0.000000     1.000000     1.000000     0.000000    20.000000     1.000000     1.100000     0.900000;
     80.000000     1.000000     0.000000     0.000000     0.000000     0.000000     1.000000     1.000000     0.000000   500.000000     1.000000     1.100000     0.900000;
     81.000000     1.000000     0.000000     0.000000     0.000000     0.000000     1.000000     1.000000     0.000000   500.000000     1.000000     1.100000     0.900000;
     82.000000     1.000000   313.580000   -49.549000     0.000000     0.000000     1.000000     1.000000     0.000000   230.000000     1.000000     1.100000     0.900000;
     83.000000     1.000000   145.724000   -23.131000     0.000000     0.000000     1.000000     1.000000     0.000000   230.000000     1.000000     1.100000     0.900000;
     84.000000     1.000000   380.419000   -54.591000     0.000000     0.000000     1.000000     1.000000     0.000000   230.000000     1.000000     1.100000     0.900000;
     85.000000     1.000000   283.512000   -37.304000     0.000000     0.000000     1.000000     1.000000     0.000000   115.000000     1.000000     1.100000     0.900000;
     86.000000     1.000000   215.372000   -44.182000     0.000000     0.000000     1.000000     1.000000     0.000000   115.000000     1.000000     1.100000     0.900000;
     87.000000     2.000000     0.000000     0.000000     0.000000     0.000000     1.000000     1.000000     0.000000    20.000000     1.000000     1.100000     0.900000;
     88.000000     2.000000     0.000000     0.000000     0.000000     0.000000     1.000000     1.000000     0.000000    20.000000     1.000000     1.100000     0.900000;
     89.000000     1.000000   417.176000   -88.465000     0.000000     0.000000     1.000000     1.000000     0.000000   230.000000     1.000000     1.100000     0.900000;
     90.000000     1.000000   528.943000   -75.520000     0.000000     0.000000     1.000000     1.000000     0.000000   230.000000     1.000000     1.100000     0.900000;
     91.000000     1.000000   592.543000  -143.183000     0.000000     0.000000     1.000000     1.000000     0.000000   230.000000     1.000000     1.100000     0.900000;
     92.000000     1.000000   595.949000   -84.091000     0.000000     0.000000     1.000000     1.000000     0.000000   230.000000     1.000000     1.100000     0.900000;
     93.000000     1.000000   492.201000   -70.216000     0.000000     0.000000     1.000000     1.000000     0.000000   230.000000     1.000000     1.100000     0.900000;
     94.000000     2.000000     0.000000     0.000000     0.000000     0.000000     1.000000     1.000000     0.000000    20.000000     1.000000     1.100000     0.900000;
     95.000000     1.000000     0.000000     0.000000     0.000000     0.000000     1.000000     1.000000     0.000000   500.000000     1.000000     1.100000     0.900000;
     96.000000     1.000000   316.377000   -80.011000     0.000000     0.000000     1.000000     1.000000     0.000000   230.000000     1.000000     1.100000     0.900000;
     97.000000     1.000000   562.870000  -135.643000     0.000000     0.000000     1.000000     1.000000     0.000000   230.000000     1.000000     1.100000     0.900000;
     98.000000     1.000000   485.777000  -112.963000     0.000000     0.000000     1.000000     1.000000     0.000000   230.000000     1.000000     1.100000     0.900000;
     99.000000     1.000000   389.689000   -55.787000     0.000000     0.000000     1.000000     1.000000     0.000000   230.000000     1.000000     1.100000     0.900000;
    100.000000     2.000000     0.000000     0.000000     0.000000     0.000000     1.000000     1.000000     0.000000    20.000000     1.000000     1.100000     0.900000;
    101.000000     1.000000   523.259000  -132.931000     0.000000     0.000000     1.000000     1.000000     0.000000   230.000000     1.000000     1.100000     0.900000;
    102.000000     1.000000     0.000000     0.000000     0.000000     0.000000     1.000000     1.000000     0.000000   230.000000     1.000000     1.100000     0.900000;
    103.000000     1.000000   464.372000   -66.225000     0.000000     0.000000     1.000000     1.000000     0.000000   230.000000     1.000000     1.100000     0.900000;
    104.000000     1.000000   400.370000   -57.509000     0.000000     0.000000     1.000000     1.000000     0.000000   230.000000     1.000000     1.100000     0.900000;
    105.000000     1.000000   423.026000   -62.878000     0.000000     0.000000     1.000000     1.000000     0.000000   230.000000     1.000000     1.100000     0.900000;
    106.000000     2.000000     0.000000     0.000000     0.000000     0.000000     1.000000     1.000000     0.000000    20.000000     1.000000     1.100000     0.900000;
    107.000000     2.000000     0.000000     0.000000     0.000000     0.000000     1.000000     1.000000     0.000000    20.000000     1.000000     1.100000     0.900000;
    108.000000     1.000000   562.514000   -80.114000     0.000000     0.000000     1.000000     1.000000     0.000000   230.000000     1.000000     1.100000     0.900000;
    109.000000     2.000000     0.000000     0.000000     0.000000     0.000000     1.000000     1.000000     0.000000    20.000000     1.000000     1.100000     0.900000;
    110.000000     1.000000    92.975000   -12.968000     0.000000     0.000000     1.000000     1.000000     0.000000   115.000000     1.000000     1.100000     0.900000;
    111.000000     2.000000     0.000000     0.000000     0.000000     0.000000     1.000000     1.000000     0.000000    20.000000     1.000000     1.100000     0.900000;
    112.000000     1.000000   317.051000   -15.847000     0.000000     0.000000     1.000000     1.000000     0.000000   115.000000     1.000000     1.100000     0.900000;
    113.000000     2.000000     0.000000     0.000000     0.000000     0.000000     1.000000     1.000000     0.000000    20.000000     1.000000     1.100000     0.900000;
    114.000000     1.000000   164.062000   -38.776000     0.000000     0.000000     1.000000     1.000000     0.000000   500.000000     1.000000     1.100000     0.900000;
    115.000000     1.000000     0.000000     0.000000     0.000000     0.000000     1.000000     1.000000     0.000000   500.000000     1.000000     1.100000     0.900000;
    116.000000     1.000000     0.000000     0.000000     0.000000     0.000000     1.000000     1.000000     0.000000   500.000000     1.000000     1.100000     0.900000;
    117.000000     1.000000   201.824000   -50.058000     0.000000     0.000000     1.000000     1.000000     0.000000   230.000000     1.000000     1.100000     0.900000;
    118.000000     1.000000   434.251000  -137.035000     0.000000     0.000000     1.000000     1.000000     0.000000   230.000000     1.000000     1.100000     0.900000;
    119.000000     1.000000   255.767000   -35.854000     0.000000     0.000000     1.000000     1.000000     0.000000   230.000000     1.000000     1.100000     0.900000;
    120.000000     2.000000     0.000000     0.000000     0.000000     0.000000     1.000000     1.000000     0.000000    20.000000     1.000000     1.100000     0.900000;
    121.000000     2.000000     0.000000     0.000000     0.000000     0.000000     1.000000     1.000000     0.000000    20.000000     1.000000     1.100000     0.900000;
    122.000000     2.000000     0.000000     0.000000     0.000000     0.000000     1.000000     1.000000     0.000000    20.000000     1.000000     1.100000     0.900000;
    123.000000     1.000000     0.000000     0.000000     0.000000     0.000000     1.000000     1.000000     0.000000   500.000000     1.000000     1.100000     0.900000;
    124.000000     1.000000     0.000000     0.000000     0.000000     0.000000     1.000000     1.000000     0.000000   500.000000     1.000000     1.100000     0.900000;
    125.000000     1.000000     0.000000     0.000000     0.000000     0.000000     1.000000     1.000000     0.000000   500.000000     1.000000     1.100000     0.900000;
    126.000000     1.000000     0.000000     0.000000     0.000000     0.000000     1.000000     1.000000     0.000000   500.000000     1.000000     1.100000     0.900000;
    127.000000     1.000000     0.000000     0.000000     0.000000     0.000000     1.000000     1.000000     0.000000   500.000000     1.000000     1.100000     0.900000;
    128.000000     1.000000     0.000000     0.000000     0.000000     0.000000     1.000000     1.000000     0.000000   500.000000     1.000000     1.100000     0.900000;
    129.000000     1.000000     0.000000     0.000000     0.000000     0.000000     1.000000     1.000000     0.000000   500.000000     1.000000     1.100000     0.900000;
    130.000000     1.000000     0.000000     0.000000     0.000000     0.000000     1.000000     1.000000     0.000000   500.000000     1.000000     1.100000     0.900000;
    131.000000     1.000000   137.692000   -34.423000     0.000000     0.000000     1.000000     1.000000     0.000000   500.000000     1.000000     1.100000     0.900000;
    132.000000     1.000000   190.745000   -26.909000     0.000000     0.000000     1.000000     1.000000     0.000000   500.000000     1.000000     1.100000     0.900000;
    133.000000     1.000000     0.000000     0.000000     0.000000     0.000000     1.000000     1.000000     0.000000   500.000000     1.000000     1.100000     0.900000;
    134.000000     1.000000     0.000000     0.000000     0.000000     0.000000     1.000000     1.000000     0.000000   500.000000     1.000000     1.100000     0.900000;
    135.000000     1.000000     0.000000     0.000000     0.000000     0.000000     1.000000     1.000000     0.000000   500.000000     1.000000     1.100000     0.900000;
    136.000000     1.000000   430.380000   -60.984000     0.000000     0.000000     1.000000     1.000000     0.000000   230.000000     1.000000     1.100000     0.900000;
    137.000000     1.000000   186.870000   -23.908000     0.000000     0.000000     1.000000     1.000000     0.000000   230.000000     1.000000     1.100000     0.900000;
    138.000000     1.000000   159.388000   -38.425000     0.000000     0.000000     1.000000     1.000000     0.000000   230.000000     1.000000     1.100000     0.900000;
    139.000000     1.000000   228.437000   -34.143000     0.000000     0.000000     1.000000     1.000000     0.000000   230.000000     1.000000     1.100000     0.900000;
    140.000000     1.000000   204.367000   -40.227000     0.000000     0.000000     1.000000     1.000000     0.000000   230.000000     1.000000     1.100000     0.900000;
    141.000000     1.000000   156.919000     0.570000     0.000000     0.000000     1.000000     1.000000     0.000000   230.000000     1.000000     1.100000     0.900000;
    142.000000     1.000000   301.003000   -40.262000     0.000000     0.000000     1.000000     1.000000     0.000000   230.000000     1.000000     1.100000     0.900000;
    143.000000     1.000000   207.245000   -48.345000     0.000000     0.000000     1.000000     1.000000     0.000000   230.000000     1.000000     1.100000     0.900000;
    144.000000     1.000000   230.849000   -48.836000     0.000000     0.000000     1.000000     1.000000     0.000000   230.000000     1.000000     1.100000     0.900000;
    145.000000     1.000000   139.766000     0.000000     0.000000     0.000000     1.000000     1.000000     0.000000   230.000000     1.000000     1.100000     0.900000;
    146.000000     1.000000   214.158000   -39.517000     0.000000     0.000000     1.000000     1.000000     0.000000   230.000000     1.000000     1.100000     0.900000;
    147.000000     1.000000   289.544000   -68.957000     0.000000     0.000000     1.000000     1.000000     0.000000   230.000000     1.000000     1.100000     0.900000;
    148.000000     1.000000   171.670000   -23.175000     0.000000     0.000000     1.000000     1.000000     0.000000   230.000000     1.000000     1.100000     0.900000;
    149.000000     1.000000   158.827000   -22.302000     0.000000     0.000000     1.000000     1.000000     0.000000   230.000000     1.000000     1.100000     0.900000;
    150.000000     1.000000   126.917000   -27.373000     0.000000     0.000000     1.000000     1.000000     0.000000   230.000000     1.000000     1.100000     0.900000;
    151.000000     1.000000   231.814000   -29.670000     0.000000     0.000000     1.000000     1.000000     0.000000   230.000000     1.000000     1.100000     0.900000;
    152.000000     1.000000   353.452000   -58.418000     0.000000     0.000000     1.000000     1.000000     0.000000   230.000000     1.000000     1.100000     0.900000;
    153.000000     1.000000   300.147000   -42.707000     0.000000     0.000000     1.000000     1.000000     0.000000   230.000000     1.000000     1.100000     0.900000;
    154.000000     1.000000     0.000000     0.000000     0.000000     0.000000     1.000000     1.000000     0.000000   115.000000     1.000000     1.100000     0.900000;
    155.000000     1.000000   244.214000   -15.453000     0.000000     0.000000     1.000000     1.000000     0.000000   115.000000     1.000000     1.100000     0.900000;
    156.000000     2.000000     0.000000     0.000000     0.000000     0.000000     1.000000     1.000000     0.000000    20.000000     1.000000     1.100000     0.900000;
    157.000000     2.000000     0.000000     0.000000     0.000000     0.000000     1.000000     1.000000     0.000000    20.000000     1.000000     1.100000     0.900000;
    158.000000     2.000000     0.000000     0.000000     0.000000     0.000000     1.000000     1.000000     0.000000    20.000000     1.000000     1.100000     0.900000;
    159.000000     1.000000     0.000000     0.000000     0.000000   600.000000     1.000000     1.000000     0.000000   500.000000     1.000000     1.100000     0.900000;
    160.000000     1.000000   154.505000   -18.455000     0.000000     0.000000     1.000000     1.000000     0.000000   500.000000     1.000000     1.100000     0.900000;
    161.000000     1.000000     0.000000     0.000000     0.000000     0.000000     1.000000     1.000000     0.000000   500.000000     1.000000     1.100000     0.900000;
    162.000000     1.000000   248.180000   -29.723000     0.000000     0.000000     1.000000     1.000000     0.000000   500.000000     1.000000     1.100000     0.900000;
    163.000000     1.000000   444.550000  -134.961000     0.000000     0.000000     1.000000     1.000000     0.000000   500.000000     1.000000     1.100000     0.900000;
    164.000000     1.000000     0.000000     0.000000     0.000000     0.000000     1.000000     1.000000     0.000000   500.000000     1.000000     1.100000     0.900000;
    165.000000     1.000000     0.000000     0.000000     0.000000     0.000000     1.000000     1.000000     0.000000   500.000000     1.000000     1.100000     0.900000;
    166.000000     1.000000   265.108000   -32.154000     0.000000     0.000000     1.000000     1.000000     0.000000   345.000000     1.000000     1.100000     0.900000;
    167.000000     1.000000  2045.132000  -369.852000     0.000000     0.000000     1.000000     1.000000     0.000000   230.000000     1.000000     1.100000     0.900000;
    168.000000     1.000000  2904.493000     0.000000     0.000000     0.000000     1.000000     1.000000     0.000000   230.000000     1.000000     1.100000     0.900000;
    169.000000     2.000000     0.000000     0.000000     0.000000     0.000000     1.000000     1.000000     0.000000    20.000000     1.000000     1.100000     0.900000;
    170.000000     2.000000     0.000000     0.000000     0.000000     0.000000     1.000000     1.000000     0.000000    20.000000     1.000000     1.100000     0.900000;
    171.000000     2.000000     0.000000     0.000000     0.000000     0.000000     1.000000     1.000000     0.000000    20.000000     1.000000     1.100000     0.900000;
    172.000000     1.000000     0.000000     0.000000     0.000000     0.000000     1.000000     1.000000     0.000000   500.000000     1.000000     1.100000     0.900000;
    173.000000     1.000000     0.000000     0.000000     0.000000     0.000000     1.000000     1.000000     0.000000   500.000000     1.000000     1.100000     0.900000;
    174.000000     1.000000     0.000000     0.000000     0.000000     0.000000     1.000000     1.000000     0.000000   500.000000     1.000000     1.100000     0.900000;
    175.000000     1.000000     0.000000     0.000000     0.000000     0.000000     1.000000     1.000000     0.000000   500.000000     1.000000     1.100000     0.900000;
    176.000000     1.000000     0.000000     0.000000     0.000000     0.000000     1.000000     1.000000     0.000000   500.000000     1.000000     1.100000     0.900000;
    177.000000     1.000000     0.000000     0.000000     0.000000     0.000000     1.000000     1.000000     0.000000   500.000000     1.000000     1.100000     0.900000;
    178.000000     1.000000     0.000000     0.000000     0.000000     0.000000     1.000000     1.000000     0.000000   500.000000     1.000000     1.100000     0.900000;
    179.000000     1.000000     0.000000     0.000000     0.000000     0.000000     1.000000     1.000000     0.000000   500.000000     1.000000     1.100000     0.900000;
    180.000000     1.000000   882.117000  -102.001000     0.000000     0.000000     1.000000     1.000000     0.000000   500.000000     1.000000     1.100000     0.900000;
    181.000000     1.000000   438.548000   -57.162000     0.000000     0.000000     1.000000     1.000000     0.000000   500.000000     1.000000     1.100000     0.900000;
    182.000000     1.000000    10.805000    -1.303000     0.000000     0.000000     1.000000     1.000000     0.000000   500.000000     1.000000     1.100000     0.900000;
    183.000000     1.000000  2424.986000  -303.469000     0.000000     0.000000     1.000000     1.000000     0.000000   230.000000     1.000000     1.100000     0.900000;
    184.000000     2.000000     0.000000     0.000000     0.000000     0.000000     1.000000     1.000000     0.000000    20.000000     1.000000     1.100000     0.900000;
    185.000000     2.000000     0.000000     0.000000     0.000000     0.000000     1.000000     1.000000     0.000000    20.000000     1.000000     1.100000     0.900000;
    186.000000     1.000000  5145.231000  -367.517000     0.000000     0.000000     1.000000     1.000000     0.000000   500.000000     1.000000     1.100000     0.900000;
    187.000000     1.000000  4300.226000  -529.215000     0.000000     0.000000     1.000000     1.000000     0.000000   500.000000     1.000000     1.100000     0.900000;
    188.000000     1.000000  4308.429000  -552.906000     0.000000     0.000000     1.000000     1.000000     0.000000   500.000000     1.000000     1.100000     0.900000;
    189.000000     1.000000   949.629000  -115.952000     0.000000     0.000000     1.000000     1.000000     0.000000   500.000000     1.000000     1.100000     0.900000;
    190.000000     2.000000     0.000000     0.000000     0.000000     0.000000     1.000000     1.000000     0.000000    20.000000     1.000000     1.100000     0.900000;
    191.000000     2.000000     0.000000     0.000000     0.000000     0.000000     1.000000     1.000000     0.000000    20.000000     1.000000     1.100000     0.900000;
    192.000000     1.000000  7213.383000 -1561.338000     0.000000     0.000000     1.000000     1.000000     0.000000   500.000000     1.000000     1.100000     0.900000;
    193.000000     1.000000  8534.582000 -1055.106000     0.000000     0.000000     1.000000     1.000000     0.000000   500.000000     1.000000     1.100000     0.900000;
    194.000000     1.000000   589.263000   -73.624000     0.000000     0.000000     1.000000     1.000000     0.000000   230.000000     1.000000     1.100000     0.900000;
    195.000000     1.000000     0.000000     0.000000     0.000000     0.000000     1.000000     1.000000     0.000000   230.000000     1.000000     1.100000     0.900000;
    196.000000     2.000000     0.000000     0.000000     0.000000     0.000000     1.000000     1.000000     0.000000    20.000000     1.000000     1.100000     0.900000;
    197.000000     2.000000     0.000000     0.000000     0.000000     0.000000     1.000000     1.000000     0.000000    20.000000     1.000000     1.100000     0.900000;
    198.000000     1.000000     0.000000     0.000000     0.000000     0.000000     1.000000     1.000000     0.000000   500.000000     1.000000     1.100000     0.900000;
    199.000000     1.000000  1022.470000   325.457000     0.000000     0.000000     1.000000     1.000000     0.000000   345.000000     1.000000     1.100000     0.900000;
    200.000000     1.000000   386.454000   -49.703000     0.000000     0.000000     1.000000     1.000000     0.000000   345.000000     1.000000     1.100000     0.900000;
...
];
mpc.gen = [
      5.000000   712.000000    -3.332000   200.000000  -200.000000     1.000000   873.000000     1.000000   873.000000     0.000000     0.000000     0.000000     0.000000     0.000000     0.000000     0.000000     0.000000     0.000000     0.000000     0.000000     0.000000;
      5.000000   856.000000    -3.332000   357.000000  -357.000000     1.000000  1050.000000     1.000000  1050.000000     0.000000     0.000000     0.000000     0.000000     0.000000     0.000000     0.000000     0.000000     0.000000     0.000000     0.000000     0.000000;
      6.000000  1847.000000   262.628000   500.000000  -500.000000     1.000000  2100.000000     1.000000  2100.000000     0.000000     0.000000     0.000000     0.000000     0.000000     0.000000     0.000000     0.000000     0.000000     0.000000     0.000000     0.000000;
      6.000000  2565.000000   262.628000   918.000000  -918.000000     1.000000  2900.000000     1.000000  2900.000000     0.000000     0.000000     0.000000     0.000000     0.000000     0.000000     0.000000     0.000000     0.000000     0.000000     0.000000     0.000000;
      9.000000   530.000000   -46.791000   308.000000  -308.000000     1.000000  1268.000000     1.000000  1268.000000     0.000000     0.000000     0.000000     0.000000     0.000000     0.000000     0.000000     0.000000     0.000000     0.000000     0.000000     0.000000;
      9.000000  2064.000000   -46.791000  1916.000000 -1916.000000     1.000000  4934.000000     1.000000  4934.000000     0.000000     0.000000     0.000000     0.000000     0.000000     0.000000     0.000000     0.000000     0.000000     0.000000     0.000000     0.000000;
     12.000000  2728.000000     0.604000  1208.000000 -1208.000000     1.000000  4977.000000     1.000000  4977.000000     0.000000     0.000000     0.000000     0.000000     0.000000     0.000000     0.000000     0.000000     0.000000     0.000000     0.000000     0.000000;
     12.000000   657.000000     0.604000   628.000000  -628.000000     1.000000  1199.000000     1.000000  1199.000000     0.000000     0.000000     0.000000     0.000000     0.000000     0.000000     0.000000     0.000000     0.000000     0.000000     0.000000     0.000000;
     16.000000  1986.000000    24.690000   841.000000  -841.000000     1.000000  2167.000000     1.000000  2167.000000     0.000000     0.000000     0.000000     0.000000     0.000000     0.000000     0.000000     0.000000     0.000000     0.000000     0.000000     0.000000;
     16.000000  2133.000000    24.690000  1219.000000 -1219.000000     1.000000  2328.000000     1.000000  2328.000000     0.000000     0.000000     0.000000     0.000000     0.000000     0.000000     0.000000     0.000000     0.000000     0.000000     0.000000     0.000000;
     17.000000   218.000000   217.320000   303.000000  -303.000000     1.000000   418.000000     1.000000   418.000000     0.000000     0.000000     0.000000     0.000000     0.000000     0.000000     0.000000     0.000000     0.000000     0.000000     0.000000     0.000000;
     17.000000  3662.000000   217.320000  2746.000000 -2746.000000     1.000000  7011.000000     1.000000  7011.000000     0.000000     0.000000     0.000000     0.000000     0.000000     0.000000     0.000000     0.000000     0.000000     0.000000     0.000000     0.000000;
     21.000000  5129.000000   409.166000  3559.000000 -3559.000000     1.000000  9170.000000     1.000000  9170.000000     0.000000     0.000000     0.000000     0.000000     0.000000     0.000000     0.000000     0.000000     0.000000     0.000000     0.000000     0.000000;
     21.000000  2355.000000   409.166000  2057.000000 -2057.000000     1.000000  4210.000000     1.000000  4210.000000     0.000000     0.000000     0.000000     0.000000     0.000000     0.000000     0.000000     0.000000     0.000000     0.000000     0.000000     0.000000;
     21.000000  1353.000000   409.166000  1000.000000 -1000.000000     1.000000  2419.000000     1.000000  2419.000000     0.000000     0.000000     0.000000     0.000000     0.000000     0.000000     0.000000     0.000000     0.000000     0.000000     0.000000     0.000000;
     23.000000   605.000000   142.477000   350.000000  -350.000000     1.000000   699.000000     1.000000   699.000000     0.000000     0.000000     0.000000     0.000000     0.000000     0.000000     0.000000     0.000000     0.000000     0.000000     0.000000     0.000000;
     23.000000  1853.000000   142.477000  1070.000000 -1070.000000     1.000000  2140.000000     1.000000  2140.000000     0.000000     0.000000     0.000000     0.000000     0.000000     0.000000     0.000000     0.000000     0.000000     0.000000     0.000000     0.000000;
     25.000000   573.000000    28.722000   254.000000  -254.000000     1.000000   831.000000     1.000000   831.000000     0.000000     0.000000     0.000000     0.000000     0.000000     0.000000     0.000000     0.000000     0.000000     0.000000     0.000000     0.000000;
     25.000000   273.000000    28.722000   250.000000  -250.000000     1.000000   396.000000     1.000000   396.000000     0.000000     0.000000     0.000000     0.000000     0.000000     0.000000     0.000000     0.000000     0.000000     0.000000     0.000000     0.000000;
     25.000000    79.000000    28.722000    86.000000   -86.000000     1.000000   115.000000     1.000000   115.000000     0.000000     0.000000     0.000000     0.000000     0.000000     0.000000     0.000000     0.000000     0.000000     0.000000     0.000000     0.000000;
     29.000000   285.000000   125.466000   304.000000  -118.000000     1.000000  1035.000000     1.000000  1035.000000     0.000000     0.000000     0.000000     0.000000     0.000000     0.000000     0.000000     0.000000     0.000000     0.000000     0.000000     0.000000;
     29.000000   506.000000   125.466000   611.000000  -181.000000     1.000000  1837.000000     1.000000  1837.000000     0.000000     0.000000     0.000000     0.000000     0.000000     0.000000     0.000000     0.000000     0.000000     0.000000     0.000000     0.000000;
     29.000000   202.000000   125.466000   206.000000  -155.000000     1.000000   733.000000     1.000000   733.000000     0.000000     0.000000     0.000000     0.000000     0.000000     0.000000     0.000000     0.000000     0.000000     0.000000     0.000000     0.000000;
     47.000000   503.000000    32.102000   728.000000  -454.000000     1.000000  2292.000000     1.000000  2292.000000     0.000000     0.000000     0.000000     0.000000     0.000000     0.000000     0.000000     0.000000     0.000000     0.000000     0.000000     0.000000;
     47.000000     0.000000     0.000000     0.500000     0.000000     1.000000   100.000000     1.000000   100.000000     0.000000     0.000000     0.000000     0.000000     0.000000     0.000000     0.000000     0.000000     0.000000     0.000000     0.000000     0.000000;
     47.000000   251.000000    32.102000   800.000000  -800.000000     1.000000  1146.000000     1.000000  1146.000000     0.000000     0.000000     0.000000     0.000000     0.000000     0.000000     0.000000     0.000000     0.000000     0.000000     0.000000     0.000000;
     47.000000   901.000000    32.102000  2301.000000 -1053.000000     1.000000  4110.000000     1.000000  4110.000000     0.000000     0.000000     0.000000     0.000000     0.000000     0.000000     0.000000     0.000000     0.000000     0.000000     0.000000     0.000000;
     47.000000   233.000000    32.102000   659.000000  -523.000000     1.000000  1460.000000     1.000000  1460.000000     0.000000     0.000000     0.000000     0.000000     0.000000     0.000000     0.000000     0.000000     0.000000     0.000000     0.000000     0.000000;
     47.000000  1276.000000    32.102000  1910.000000 -1150.000000     1.000000  5817.000000     1.000000  5817.000000     0.000000     0.000000     0.000000     0.000000     0.000000     0.000000     0.000000     0.000000     0.000000     0.000000     0.000000     0.000000;
     75.000000  2282.000000   184.814000  1346.000000 -1346.000000     1.000000  3947.000000     1.000000  3947.000000     0.000000     0.000000     0.000000     0.000000     0.000000     0.000000     0.000000     0.000000     0.000000     0.000000     0.000000     0.000000;
     77.000000  1537.000000   -18.880000   950.000000  -950.000000     1.000000  1900.000000     1.000000  1900.000000     0.000000     0.000000     0.000000     0.000000     0.000000     0.000000     0.000000     0.000000     0.000000     0.000000     0.000000     0.000000;
     78.000000    83.000000    40.647000   110.000000  -110.000000     1.000000   200.000000     1.000000   200.000000     0.000000     0.000000     0.000000     0.000000     0.000000     0.000000     0.000000     0.000000     0.000000     0.000000     0.000000     0.000000;
     79.000000   200.000000     7.740000   100.000000  -100.000000     1.000000   407.000000     1.000000   407.000000     0.000000     0.000000     0.000000     0.000000     0.000000     0.000000     0.000000     0.000000     0.000000     0.000000     0.000000     0.000000;
     87.000000    31.000000   -12.551000    42.000000   -29.000000     1.000000    80.000000     1.000000    80.000000     0.000000     0.000000     0.000000     0.000000     0.000000     0.000000     0.000000     0.000000     0.000000     0.000000     0.000000     0.000000;
     87.000000     0.000000     0.000000   500.000000  -500.000000     1.000000   300.000000     1.000000   300.000000     0.000000     0.000000     0.000000     0.000000     0.000000     0.000000     0.000000     0.000000     0.000000     0.000000     0.000000     0.000000;
     88.000000   206.000000    42.757000   239.000000  -201.000000     1.000000   541.000000     1.000000   541.000000     0.000000     0.000000     0.000000     0.000000     0.000000     0.000000     0.000000     0.000000     0.000000     0.000000     0.000000     0.000000;
     88.000000    14.000000    42.757000   100.000000   -85.000000     1.000000    38.000000     1.000000    38.000000     0.000000     0.000000     0.000000     0.000000     0.000000     0.000000     0.000000     0.000000     0.000000     0.000000     0.000000     0.000000;
     94.000000   104.000000   101.000000   101.000000   -75.000000     1.000000   177.000000     1.000000   177.000000     0.000000     0.000000     0.000000     0.000000     0.000000     0.000000     0.000000     0.000000     0.000000     0.000000     0.000000     0.000000;
     94.000000  2261.000000   118.878000  1244.000000 -1234.000000     1.000000  3853.000000     1.000000  3853.000000     0.000000     0.000000     0.000000     0.000000     0.000000     0.000000     0.000000     0.000000     0.000000     0.000000     0.000000     0.000000;
     94.000000   608.000000   118.878000   382.000000  -212.000000     1.000000  1037.000000     1.000000  1037.000000     0.000000     0.000000     0.000000     0.000000     0.000000     0.000000     0.000000     0.000000     0.000000     0.000000     0.000000     0.000000;
    100.000000   620.000000    81.668000   398.000000  -226.000000     1.000000  1012.000000     1.000000  1012.000000     0.000000     0.000000     0.000000     0.000000     0.000000     0.000000     0.000000     0.000000     0.000000     0.000000     0.000000     0.000000;
    100.000000   191.000000    81.668000   202.000000  -143.000000     1.000000   312.000000     1.000000   312.000000     0.000000     0.000000     0.000000     0.000000     0.000000     0.000000     0.000000     0.000000     0.000000     0.000000     0.000000     0.000000;
    106.000000     0.000000     0.000000  1568.000000  -941.000000     1.000000  3746.000000     1.000000  3746.000000     0.000000     0.000000     0.000000     0.000000     0.000000     0.000000     0.000000     0.000000     0.000000     0.000000     0.000000     0.000000;
    107.000000   481.000000    25.641000   231.000000  -175.000000     1.000000   921.000000     1.000000   921.000000     0.000000     0.000000     0.000000     0.000000     0.000000     0.000000     0.000000     0.000000     0.000000     0.000000     0.000000     0.000000;
    109.000000   783.000000    30.853000  1004.000000  -599.000000     1.000000  1424.000000     1.000000  1424.000000     0.000000     0.000000     0.000000     0.000000     0.000000     0.000000     0.000000     0.000000     0.000000     0.000000     0.000000     0.000000;
    109.000000   293.000000    30.853000   253.000000  -181.000000     1.000000   533.000000     1.000000   533.000000     0.000000     0.000000     0.000000     0.000000     0.000000     0.000000     0.000000     0.000000     0.000000     0.000000     0.000000     0.000000;
    109.000000    13.000000    13.000000    13.000000   -10.000000     1.000000    24.000000     1.000000    24.000000     0.000000     0.000000     0.000000     0.000000     0.000000     0.000000     0.000000     0.000000     0.000000     0.000000     0.000000     0.000000;
    111.000000    30.000000   -14.000000    20.000000   -14.000000     1.000000    96.000000     1.000000    96.000000     0.000000     0.000000     0.000000     0.000000     0.000000     0.000000     0.000000     0.000000     0.000000     0.000000     0.000000     0.000000;
    111.000000    67.000000   -33.095000    74.000000   -34.000000     1.000000   210.000000     1.000000   210.000000     0.000000     0.000000     0.000000     0.000000     0.000000     0.000000     0.000000     0.000000     0.000000     0.000000     0.000000     0.000000;
    113.000000   222.000000  -121.000000   200.000000  -121.000000     1.000000   400.000000     1.000000   400.000000     0.000000     0.000000     0.000000     0.000000     0.000000     0.000000     0.000000     0.000000     0.000000     0.000000     0.000000     0.000000;
    120.000000  2108.000000   -40.709000  1175.000000  -980.000000     1.000000  2323.000000     1.000000  2323.000000     0.000000     0.000000     0.000000     0.000000     0.000000     0.000000     0.000000     0.000000     0.000000     0.000000     0.000000     0.000000;
    121.000000     0.000000     0.000000     0.500000     0.000000     1.000000   100.000000     1.000000   100.000000     0.000000     0.000000     0.000000     0.000000     0.000000     0.000000     0.000000     0.000000     0.000000     0.000000     0.000000     0.000000;
    121.000000   150.000000    28.865000   500.000000  -500.000000     1.000000  1333.000000     1.000000  1333.000000     0.000000     0.000000     0.000000     0.000000     0.000000     0.000000     0.000000     0.000000     0.000000     0.000000     0.000000     0.000000;
    122.000000   679.000000    -6.822000   476.000000  -352.000000     1.000000  1497.000000     1.000000  1497.000000     0.000000     0.000000     0.000000     0.000000     0.000000     0.000000     0.000000     0.000000     0.000000     0.000000     0.000000     0.000000;
    156.000000   235.000000    72.471000   151.000000  -115.000000     1.000000   567.000000     1.000000   567.000000     0.000000     0.000000     0.000000     0.000000     0.000000     0.000000     0.000000     0.000000     0.000000     0.000000     0.000000     0.000000;
    156.000000  1212.000000    72.471000  1284.000000  -946.000000     1.000000  2875.000000     1.000000  2875.000000     0.000000     0.000000     0.000000     0.000000     0.000000     0.000000     0.000000     0.000000     0.000000     0.000000     0.000000     0.000000;
    158.000000     0.000000     0.000000     0.500000     0.000000     1.000000   100.000000     1.000000   100.000000     0.000000     0.000000     0.000000     0.000000     0.000000     0.000000     0.000000     0.000000     0.000000     0.000000     0.000000     0.000000;
    158.000000   901.970000    88.652000   500.000000  -307.000000     1.000000  1927.000000     1.000000  1927.000000     0.000000     0.000000     0.000000     0.000000     0.000000     0.000000     0.000000     0.000000     0.000000     0.000000     0.000000     0.000000;
    158.000000  1275.022000    88.652000  1256.000000 -1041.000000     1.000000  2774.000000     1.000000  2774.000000     0.000000     0.000000     0.000000     0.000000     0.000000     0.000000     0.000000     0.000000     0.000000     0.000000     0.000000     0.000000;
    158.000000   346.372000    88.652000   200.000000  -200.000000     1.000000   740.000000     1.000000   740.000000     0.000000     0.000000     0.000000     0.000000     0.000000     0.000000     0.000000     0.000000     0.000000     0.000000     0.000000     0.000000;
    158.000000   623.937000    88.652000   800.000000  -500.000000     1.000000  1333.000000     1.000000  1333.000000     0.000000     0.000000     0.000000     0.000000     0.000000     0.000000     0.000000     0.000000     0.000000     0.000000     0.000000     0.000000;
    169.000000   892.801000  -168.528000   502.000000  -502.000000     1.000000  2710.000000     1.000000  2710.000000     0.000000     0.000000     0.000000     0.000000     0.000000     0.000000     0.000000     0.000000     0.000000     0.000000     0.000000     0.000000;
    169.000000   208.800000  -168.528000   240.000000  -240.000000     1.000000   635.000000     1.000000   635.000000     0.000000     0.000000     0.000000     0.000000     0.000000     0.000000     0.000000     0.000000     0.000000     0.000000     0.000000     0.000000;
    170.000000   448.200000  -122.614000   307.000000  -307.000000     1.000000  1656.000000     1.000000  1656.000000     0.000000     0.000000     0.000000     0.000000     0.000000     0.000000     0.000000     0.000000     0.000000     0.000000     0.000000     0.000000;
    170.000000   966.600000  -122.614000  1836.000000 -1836.000000     1.000000  3572.000000     1.000000  3572.000000     0.000000     0.000000     0.000000     0.000000     0.000000     0.000000     0.000000     0.000000     0.000000     0.000000     0.000000     0.000000;
    170.000000   697.500000  -122.614000   800.000000  -800.000000     1.000000  2578.000000     1.000000  2578.000000     0.000000     0.000000     0.000000     0.000000     0.000000     0.000000     0.000000     0.000000     0.000000     0.000000     0.000000     0.000000;
    171.000000    77.400000   102.000000   102.000000  -102.000000     1.000000   150.000000     1.000000   150.000000     0.000000     0.000000     0.000000     0.000000     0.000000     0.000000     0.000000     0.000000     0.000000     0.000000     0.000000     0.000000;
    171.000000  1455.300000   380.224000  1459.000000 -1459.000000     1.000000  2839.000000     1.000000  2839.000000     0.000000     0.000000     0.000000     0.000000     0.000000     0.000000     0.000000     0.000000     0.000000     0.000000     0.000000     0.000000;
    184.000000   450.000000   150.000000   150.000000  -150.000000     1.000000   711.000000     1.000000   711.000000     0.000000     0.000000     0.000000     0.000000     0.000000     0.000000     0.000000     0.000000     0.000000     0.000000     0.000000     0.000000;
    184.000000  7418.700000   543.401000  6482.000000 -6482.000000     1.000000 12613.000000     1.000000 12613.000000     0.000000     0.000000     0.000000     0.000000     0.000000     0.000000     0.000000     0.000000     0.000000     0.000000     0.000000     0.000000;
    185.000000  1854.899000    52.261000  1473.000000 -1473.000000     1.000000  2170.000000     1.000000  2170.000000     0.000000     0.000000     0.000000     0.000000     0.000000     0.000000     0.000000     0.000000     0.000000     0.000000     0.000000     0.000000;
    185.000000  3835.801000    52.261000  2847.000000 -2847.000000     1.000000  5539.000000     1.000000  5539.000000     0.000000     0.000000     0.000000     0.000000     0.000000     0.000000     0.000000     0.000000     0.000000     0.000000     0.000000     0.000000;
    185.000000   900.000000    52.261000   231.000000  -231.000000     1.000000  1200.000000     1.000000  1200.000000     0.000000     0.000000     0.000000     0.000000     0.000000     0.000000     0.000000     0.000000     0.000000     0.000000     0.000000     0.000000;
    185.000000   270.000000    52.261000   160.000000  -160.000000     1.000000   400.000000     1.000000   400.000000     0.000000     0.000000     0.000000     0.000000     0.000000     0.000000     0.000000     0.000000     0.000000     0.000000     0.000000     0.000000;
    190.000000   999.000000   485.229000   728.000000  -728.000000     1.000000  1460.000000     1.000000  1460.000000     0.000000     0.000000     0.000000     0.000000     0.000000     0.000000     0.000000     0.000000     0.000000     0.000000     0.000000     0.000000;
    190.000000   664.200000   485.229000   659.000000  -659.000000     1.000000   970.000000     1.000000   970.000000     0.000000     0.000000     0.000000     0.000000     0.000000     0.000000     0.000000     0.000000     0.000000     0.000000     0.000000     0.000000;
    190.000000  2406.601000   485.229000  1808.000000 -1808.000000     1.000000  3517.000000     1.000000  3517.000000     0.000000     0.000000     0.000000     0.000000     0.000000     0.000000     0.000000     0.000000     0.000000     0.000000     0.000000     0.000000;
    191.000000   348.300000    -3.607000   592.000000  -592.000000     1.000000   872.000000     1.000000   872.000000     0.000000     0.000000     0.000000     0.000000     0.000000     0.000000     0.000000     0.000000     0.000000     0.000000     0.000000     0.000000;
    191.000000   316.800000    -3.607000   108.000000  -108.000000     1.000000   695.000000     1.000000   695.000000     0.000000     0.000000     0.000000     0.000000     0.000000     0.000000     0.000000     0.000000     0.000000     0.000000     0.000000     0.000000;
    196.000000   821.700000   534.329000   605.000000  -605.000000     1.000000  2650.000000     1.000000  2650.000000     0.000000     0.000000     0.000000     0.000000     0.000000     0.000000     0.000000     0.000000     0.000000     0.000000     0.000000     0.000000;
    196.000000  5976.000000   534.329000  4399.000000 -4399.000000     1.000000 10747.000000     1.000000 10747.000000     0.000000     0.000000     0.000000     0.000000     0.000000     0.000000     0.000000     0.000000     0.000000     0.000000     0.000000     0.000000;
    197.000000  2695.500000   410.280000  2200.000000 -2200.000000     1.000000  9636.000000     1.000000  9636.000000     0.000000     0.000000     0.000000     0.000000     0.000000     0.000000     0.000000     0.000000     0.000000     0.000000     0.000000     0.000000;
    197.000000    66.600000    54.000000    54.000000   -54.000000     1.000000   108.000000     1.000000   108.000000     0.000000     0.000000     0.000000     0.000000     0.000000     0.000000     0.000000     0.000000     0.000000     0.000000     0.000000     0.000000;
    197.000000  2701.800000   410.280000  2205.000000 -2205.000000     1.000000  4410.200000     1.000000  4410.200000     0.000000     0.000000     0.000000     0.000000     0.000000     0.000000     0.000000     0.000000     0.000000     0.000000     0.000000     0.000000;
    202.000000    45.000000   -20.000000    20.000000   -20.000000     1.000000   122.000000     1.000000   122.000000     0.000000     0.000000     0.000000     0.000000     0.000000     0.000000     0.000000     0.000000     0.000000     0.000000     0.000000     0.000000;
    202.000000  1043.100000  -147.000000   147.000000  -147.000000     1.000000  1272.000000     1.000000  1272.000000     0.000000     0.000000     0.000000     0.000000     0.000000     0.000000     0.000000     0.000000     0.000000     0.000000     0.000000     0.000000;
    202.000000   180.000000   -75.000000    75.000000   -75.000000     1.000000   395.000000     1.000000   395.000000     0.000000     0.000000     0.000000     0.000000     0.000000     0.000000     0.000000     0.000000     0.000000     0.000000     0.000000     0.000000;
    208.000000   705.150000  -104.087000  1256.000000 -1256.000000     1.000000  2488.000000     1.000000  2488.000000     0.000000     0.000000     0.000000     0.000000     0.000000     0.000000     0.000000     0.000000     0.000000     0.000000     0.000000     0.000000;
    208.000000   225.000000   -70.000000    70.000000   -70.000000     1.000000   250.000000     1.000000   250.000000     0.000000     0.000000     0.000000     0.000000     0.000000     0.000000     0.000000     0.000000     0.000000     0.000000     0.000000     0.000000;
    209.000000    90.000000    49.769000    64.000000   -64.000000     1.000000   226.000000     1.000000   226.000000     0.000000     0.000000     0.000000     0.000000     0.000000     0.000000     0.000000     0.000000     0.000000     0.000000     0.000000     0.000000;
    209.000000   280.800000    49.769000   195.000000  -195.000000     1.000000   720.000000     1.000000   720.000000     0.000000     0.000000     0.000000     0.000000     0.000000     0.000000     0.000000     0.000000     0.000000     0.000000     0.000000     0.000000;
    215.000000  2837.700000   330.576000  1671.000000 -1671.000000     1.000000  4594.000000     1.000000  4594.000000     0.000000     0.000000     0.000000     0.000000     0.000000     0.000000     0.000000     0.000000     0.000000     0.000000     0.000000     0.000000;
...